6 

C -0.28658670194342556 0.00453199003335065 0.036834131035543144
H -0.4923121101042101 -0.5391839390208927 0.9484119782284121
H -0.7197819971526593 -0.4762774850478641 -0.8292424826697518
H -0.5742422783469379 1.0441291601270368 0.11042581587277436
Br 1.7301947108109657 -0.028317770003151204 -0.22239001339218492
Cl -3.3559387202398256 0.05501542693979952 0.4313559016910354
